@<TRIPOS>MOLECULE
 WAT
     3      2      1
 SMALL
 bcc


@<TRIPOS>ATOM
     1  O     0.0000     0.0000     0.0000  O.3   1 WAT1   -0.8000
     2  H     0.0000     0.0000     0.9500  H     1 WAT1    0.4000
     3  H     0.8957     0.0000    -0.3167  H     1 WAT1    0.4000
@<TRIPOS>BOND
     1      1      2      1
     2      1      3      1
@<TRIPOS>SUBSTRUCTURE
      1   WAT1     1 **** O **** ****
