@<TRIPOS>MOLECULE
 WAT
     6      4      1
 SMALL
 bcc


@<TRIPOS>ATOM
     1  O     0.0000     0.0000     0.0000  O.3   1 WAT1    0.0000
     2  O     0.0000     0.0000     2.9000  O.3   1 WAT1    0.0000
     3  H     0.4015     0.0000     2.0390  H     1 WAT1    0.0000
     4  H     0.6779     0.0000     3.5655  H     1 WAT1    0.0000
     5  H    -0.4015     0.0000     0.8610  H     1 WAT1    0.0000
     6  H    -0.6779     0.0000    -0.6655  H     1 WAT1    0.0000
@<TRIPOS>BOND
     1      1      5      1
     2      1      6      1
     3      2      3      1
     4      2      4      1
@<TRIPOS>SUBSTRUCTURE
      1   WAT1     1 **** O **** ****
