@<TRIPOS>MOLECULE
 WAT
     3      2      1
 SMALL
 NO_CHARGES
 
 
@<TRIPOS>ATOM
     1  O     0.0000     0.0000     0.0000  O.3   1 RES1   -0.8000
     2  H     0.0000     0.0000     0.9472  H     1 RES1    0.4000
     3  H     0.9128     0.0000    -0.2528  H     1 RES1    0.4000
@<TRIPOS>BOND
     1      1      2      1
     2      1      3      1
@<TRIPOS>SUBSTRUCTURE
      1 RES1       1 **** O **** ****
