@<TRIPOS>MOLECULE
 WAT1
     9      6      1
 SMALL
 bcc
 
 
@<TRIPOS>ATOM
     1  O     0.0000     0.0000     0.0000  O.3   1 WAT1    0.0000
     2  O     0.0000     0.0000     2.9000  O.3   1 WAT1    0.0000
     3  O     2.5115     0.0000     1.4500  O.3   1 WAT1    0.0000
     4  H     0.9464     0.0000     0.0828  H     1 WAT1    0.0000
     5  H    -0.4015     0.0000     2.0390  H     1 WAT1    0.0000
     6  H     1.9666     0.0000     2.2282  H     1 WAT1    0.0000
     7  H     3.2392     0.0000     2.0606  H     1 WAT1    0.0000
     8  H    -0.8927     0.0000     3.2249  H     1 WAT1    0.0000
     9  H     0.1650     0.0000    -0.9356  H     1 WAT1    0.0000
@<TRIPOS>BOND
     1      1      4      1
     2      1      9      1
     3      2      5      1
     4      2      8      1
     5      3      6      1
     6      3      7      1
@<TRIPOS>SUBSTRUCTURE
      1   WAT1     1 **** O **** ****
